<?xml version="1.0" encoding="UTF-8"?>

<!-- generated on 2025-06-13 13:14:10 by Eclipse SUMO netedit Version 1.21.0
<neteditConfiguration xmlns:xsi="http://www.w3.org/2001/XMLSchema-instance" xsi:noNamespaceSchemaLocation="http://sumo.dlr.de/xsd/neteditConfiguration.xsd">

    <input>
        <sumo-net-file value="C:\Users\xh8\ornl_work\github_workspace\SUMO-DVSL-DDPG\src\map.net.xml"/>
    </input>

    <output>
        <output-file value="C:\Users\xh8\ornl_work\github_workspace\SUMO-DVSL-DDPG\src\map.net.xml"/>
    </output>

    <processing>
        <geometry.min-radius.fix.railways value="false"/>
        <geometry.max-grade.fix value="false"/>
        <offset.disable-normalization value="true"/>
        <lefthand value="0"/>
    </processing>

    <junctions>
        <no-turnarounds value="true"/>
        <junctions.corner-detail value="0"/>
        <junctions.limit-turn-speed value="-1.00"/>
        <rectangular-lane-cut value="0"/>
    </junctions>

    <pedestrian>
        <walkingareas value="0"/>
    </pedestrian>

</neteditConfiguration>
-->

<net version="1.20" xmlns:xsi="http://www.w3.org/2001/XMLSchema-instance" xsi:noNamespaceSchemaLocation="http://sumo.dlr.de/xsd/net_file.xsd">

    <location netOffset="-376663.55,-3746035.54" convBoundary="1689.62,0.00,4075.50,2584.64" origBoundary="-118.333343,33.847761,-118.286321,33.871072" projParameter="+proj=utm +zone=11 +ellps=WGS84 +datum=WGS84 +units=m +no_defs"/>

    <type id="highway.motorway" priority="13" numLanes="2" speed="44.44" allow="private emergency authority army vip passenger hov taxi bus coach delivery truck trailer motorcycle evehicle custom1 custom2" oneway="1"/>
    <type id="highway.motorway_link" priority="12" numLanes="1" speed="22.22" allow="private emergency authority army vip passenger hov taxi bus coach delivery truck trailer motorcycle evehicle custom1 custom2" oneway="1"/>

    <edge id=":27748104#0-AddedOnRampNode_0" function="internal">
        <lane id=":27748104#0-AddedOnRampNode_0_0" index="0" allow="private emergency authority army vip passenger hov taxi bus coach delivery truck trailer motorcycle evehicle custom1 custom2" speed="29.06" length="8.00" shape="3904.42,1317.23 3896.72,1319.38"/>
        <lane id=":27748104#0-AddedOnRampNode_0_1" index="1" allow="private emergency authority army vip passenger hov taxi bus coach delivery truck trailer motorcycle evehicle custom1 custom2" speed="29.06" length="8.00" shape="3903.56,1314.15 3895.86,1316.30"/>
        <lane id=":27748104#0-AddedOnRampNode_0_2" index="2" allow="private emergency authority army vip passenger hov taxi bus coach delivery truck trailer motorcycle evehicle custom1 custom2" speed="29.06" length="8.00" shape="3902.70,1311.06 3895.00,1313.21"/>
        <lane id=":27748104#0-AddedOnRampNode_0_3" index="3" allow="private emergency authority army vip passenger hov taxi bus coach delivery truck trailer motorcycle evehicle custom1 custom2" speed="29.06" length="8.00" shape="3901.84,1307.98 3894.14,1310.13"/>
        <lane id=":27748104#0-AddedOnRampNode_0_4" index="4" allow="private emergency authority army vip passenger hov taxi bus coach delivery truck trailer motorcycle evehicle custom1 custom2" speed="29.06" length="8.00" shape="3900.98,1304.90 3893.28,1307.05"/>
    </edge>
    <edge id=":27748104#1-AddedOnRampNode_0" function="internal">
        <lane id=":27748104#1-AddedOnRampNode_0_0" index="0" allow="private emergency authority army vip passenger hov taxi bus coach delivery truck trailer motorcycle evehicle custom1 custom2" speed="29.06" length="0.10" shape="3600.92,1357.56 3600.93,1357.56"/>
        <lane id=":27748104#1-AddedOnRampNode_0_1" index="1" allow="private emergency authority army vip passenger hov taxi bus coach delivery truck trailer motorcycle evehicle custom1 custom2" speed="29.06" length="0.10" shape="3600.86,1354.36 3600.86,1354.36"/>
        <lane id=":27748104#1-AddedOnRampNode_0_2" index="2" allow="private emergency authority army vip passenger hov taxi bus coach delivery truck trailer motorcycle evehicle custom1 custom2" speed="29.06" length="0.10" shape="3600.79,1351.16 3600.79,1351.16"/>
        <lane id=":27748104#1-AddedOnRampNode_0_3" index="3" allow="private emergency authority army vip passenger hov taxi bus coach delivery truck trailer motorcycle evehicle custom1 custom2" speed="29.06" length="0.10" shape="3600.73,1347.96 3600.73,1347.96"/>
        <lane id=":27748104#1-AddedOnRampNode_0_4" index="4" allow="private emergency authority army vip passenger hov taxi bus coach delivery truck trailer motorcycle evehicle custom1 custom2" speed="29.06" length="0.10" shape="3600.66,1344.76 3600.66,1344.76"/>
        <lane id=":27748104#1-AddedOnRampNode_0_5" index="5" allow="private emergency authority army vip passenger hov taxi bus coach delivery truck trailer motorcycle evehicle custom1 custom2" speed="29.06" length="0.10" shape="3600.60,1341.56 3600.59,1341.56"/>
    </edge>
    <edge id=":304695082_0" function="internal">
        <lane id=":304695082_0_0" index="0" allow="private emergency authority army vip passenger hov taxi bus coach delivery truck trailer motorcycle evehicle custom1 custom2" speed="29.06" length="0.71" shape="3935.68,1311.82 3934.75,1312.10"/>
        <lane id=":304695082_0_1" index="1" allow="private emergency authority army vip passenger hov taxi bus coach delivery truck trailer motorcycle evehicle custom1 custom2" speed="29.06" length="0.71" shape="3934.72,1308.77 3933.89,1309.01"/>
        <lane id=":304695082_0_2" index="2" allow="private emergency authority army vip passenger hov taxi bus coach delivery truck trailer motorcycle evehicle custom1 custom2" speed="29.06" length="0.71" shape="3933.77,1305.72 3933.03,1305.93"/>
        <lane id=":304695082_0_3" index="3" allow="private emergency authority army vip passenger hov taxi bus coach delivery truck trailer motorcycle evehicle custom1 custom2" speed="29.06" length="0.71" shape="3932.81,1302.66 3932.17,1302.85"/>
        <lane id=":304695082_0_4" index="4" allow="private emergency authority army vip passenger hov taxi bus coach delivery truck trailer motorcycle evehicle custom1 custom2" speed="29.06" length="0.71" shape="3931.85,1299.61 3931.31,1299.77"/>
        <lane id=":304695082_0_5" index="5" allow="private emergency authority army vip passenger hov taxi bus coach delivery truck trailer motorcycle evehicle custom1 custom2" speed="29.06" length="0.71" shape="3930.89,1296.56 3930.45,1296.68"/>
    </edge>
    <edge id=":304695295_0" function="internal">
        <lane id=":304695295_0_0" index="0" allow="private emergency authority army vip passenger hov taxi bus coach delivery truck trailer motorcycle evehicle custom1 custom2" speed="29.06" length="7.43" shape="4000.45,1287.65 3998.35,1289.15 3997.30,1290.78 3996.21,1292.32 3994.01,1293.54"/>
        <lane id=":304695295_0_1" index="1" allow="private emergency authority army vip passenger hov taxi bus coach delivery truck trailer motorcycle evehicle custom1 custom2" speed="29.06" length="7.43" shape="4000.45,1287.65 3998.30,1288.62 3996.82,1289.24 3995.30,1289.77 3993.06,1290.48"/>
        <lane id=":304695295_0_2" index="2" allow="private emergency authority army vip passenger hov taxi bus coach delivery truck trailer motorcycle evehicle custom1 custom2" speed="29.06" length="7.43" shape="3999.12,1284.74 3997.08,1285.66 3995.67,1286.25 3994.23,1286.75 3992.10,1287.43"/>
        <lane id=":304695295_0_3" index="3" allow="private emergency authority army vip passenger hov taxi bus coach delivery truck trailer motorcycle evehicle custom1 custom2" speed="29.06" length="7.43" shape="3997.79,1281.83 3995.86,1282.70 3994.52,1283.26 3993.16,1283.74 3991.14,1284.38"/>
        <lane id=":304695295_0_4" index="4" allow="private emergency authority army vip passenger hov taxi bus coach delivery truck trailer motorcycle evehicle custom1 custom2" speed="29.06" length="7.43" shape="3996.46,1278.92 3994.64,1279.74 3993.38,1280.27 3992.09,1280.72 3990.18,1281.32"/>
        <lane id=":304695295_0_5" index="5" allow="private emergency authority army vip passenger hov taxi bus coach delivery truck trailer motorcycle evehicle custom1 custom2" speed="29.06" length="7.43" shape="3995.13,1276.01 3993.42,1276.78 3992.23,1277.28 3991.02,1277.70 3989.23,1278.27"/>
    </edge>
    <edge id=":304822559_0" function="internal">
        <lane id=":304822559_0_0" index="0" allow="private emergency authority army vip passenger hov taxi bus coach delivery truck trailer motorcycle evehicle custom1 custom2" speed="25.64" length="3.14" shape="3570.55,1358.19 3567.42,1358.47"/>
    </edge>
    <edge id=":304822559_1" function="internal">
        <lane id=":304822559_1_0" index="0" allow="private emergency authority army vip passenger hov taxi bus coach delivery truck trailer motorcycle evehicle custom1 custom2" speed="29.06" length="2.94" shape="3570.48,1354.99 3567.41,1355.01"/>
        <lane id=":304822559_1_1" index="1" allow="private emergency authority army vip passenger hov taxi bus coach delivery truck trailer motorcycle evehicle custom1 custom2" speed="29.06" length="2.94" shape="3570.42,1351.79 3567.41,1351.81"/>
        <lane id=":304822559_1_2" index="2" allow="private emergency authority army vip passenger hov taxi bus coach delivery truck trailer motorcycle evehicle custom1 custom2" speed="29.06" length="2.94" shape="3570.35,1348.59 3567.41,1348.61"/>
        <lane id=":304822559_1_3" index="3" allow="private emergency authority army vip passenger hov taxi bus coach delivery truck trailer motorcycle evehicle custom1 custom2" speed="29.06" length="2.94" shape="3570.28,1345.39 3567.41,1345.41"/>
        <lane id=":304822559_1_4" index="4" allow="private emergency authority army vip passenger hov taxi bus coach delivery truck trailer motorcycle evehicle custom1 custom2" speed="29.06" length="2.94" shape="3570.22,1342.19 3567.40,1342.21"/>
    </edge>
    <edge id=":304822600_0" function="internal">
        <lane id=":304822600_0_0" index="0" allow="private emergency authority army vip passenger hov taxi bus coach delivery truck trailer motorcycle evehicle custom1 custom2" speed="29.06" length="2.99" shape="3702.56,1352.22 3699.39,1352.33"/>
        <lane id=":304822600_0_1" index="1" allow="private emergency authority army vip passenger hov taxi bus coach delivery truck trailer motorcycle evehicle custom1 custom2" speed="29.06" length="2.99" shape="3702.40,1349.02 3699.33,1349.13"/>
        <lane id=":304822600_0_2" index="2" allow="private emergency authority army vip passenger hov taxi bus coach delivery truck trailer motorcycle evehicle custom1 custom2" speed="29.06" length="2.99" shape="3702.25,1345.82 3699.26,1345.93"/>
        <lane id=":304822600_0_3" index="3" allow="private emergency authority army vip passenger hov taxi bus coach delivery truck trailer motorcycle evehicle custom1 custom2" speed="29.06" length="2.99" shape="3702.09,1342.63 3699.20,1342.73"/>
        <lane id=":304822600_0_4" index="4" allow="private emergency authority army vip passenger hov taxi bus coach delivery truck trailer motorcycle evehicle custom1 custom2" speed="29.06" length="2.99" shape="3701.93,1339.43 3699.13,1339.53"/>
    </edge>
    <edge id=":304822600_5" function="internal">
        <lane id=":304822600_5_0" index="0" allow="private emergency authority army vip passenger hov taxi bus coach delivery truck trailer motorcycle evehicle custom1 custom2" speed="25.64" length="3.27" shape="3702.73,1355.63 3701.76,1355.65 3701.10,1355.60 3700.43,1355.54 3699.46,1355.53"/>
    </edge>
    <edge id=":304822707_0" function="internal">
        <lane id=":304822707_0_0" index="0" allow="private emergency authority army vip passenger hov taxi bus coach delivery truck trailer motorcycle evehicle custom1 custom2" speed="22.22" length="2.96" shape="3780.63,1353.62 3777.67,1353.53"/>
    </edge>

    <edge id="m3" from="304695291" to="304695295" priority="13" type="highway.motorway" spreadType="center" shape="4075.50,1244.84 4034.46,1265.11 3994.59,1283.29">
        <lane id="m3_0" index="0" allow="private emergency authority army vip passenger hov taxi bus coach delivery truck trailer motorcycle evehicle custom1 custom2" speed="29.06" length="86.08" shape="4078.33,1250.58 4037.21,1270.89 4000.45,1287.65"/>
        <lane id="m3_1" index="1" allow="private emergency authority army vip passenger hov taxi bus coach delivery truck trailer motorcycle evehicle custom1 custom2" speed="29.06" length="86.08" shape="4076.92,1247.71 4035.83,1268.00 3999.12,1284.74"/>
        <lane id="m3_2" index="2" allow="private emergency authority army vip passenger hov taxi bus coach delivery truck trailer motorcycle evehicle custom1 custom2" speed="29.06" length="86.08" shape="4075.50,1244.84 4034.46,1265.11 3997.79,1281.83"/>
        <lane id="m3_3" index="3" allow="private emergency authority army vip passenger hov taxi bus coach delivery truck trailer motorcycle evehicle custom1 custom2" speed="29.06" length="86.08" shape="4074.08,1241.97 4033.09,1262.22 3996.46,1278.92"/>
        <lane id="m3_4" index="4" allow="private emergency authority army vip passenger hov taxi bus coach delivery truck trailer motorcycle evehicle custom1 custom2" speed="29.06" length="86.08" shape="4072.67,1239.10 4031.71,1259.33 3995.13,1276.01"/>
    </edge>
    <edge id="m4" from="304695295" to="304695082" priority="13" type="highway.motorway" spreadType="center" shape="3995.07,1284.82 3932.97,1304.29">
        <lane id="m4_0" index="0" allow="private emergency authority army vip passenger hov taxi bus coach delivery truck trailer motorcycle evehicle custom1 custom2" speed="29.06" length="61.13" acceleration="1" shape="3994.01,1293.54 3935.68,1311.82"/>
        <lane id="m4_1" index="1" allow="private emergency authority army vip passenger hov taxi bus coach delivery truck trailer motorcycle evehicle custom1 custom2" speed="29.06" length="61.13" shape="3993.06,1290.48 3934.72,1308.77"/>
        <lane id="m4_2" index="2" allow="private emergency authority army vip passenger hov taxi bus coach delivery truck trailer motorcycle evehicle custom1 custom2" speed="29.06" length="61.13" shape="3992.10,1287.43 3933.77,1305.72"/>
        <lane id="m4_3" index="3" allow="private emergency authority army vip passenger hov taxi bus coach delivery truck trailer motorcycle evehicle custom1 custom2" speed="29.06" length="61.13" shape="3991.14,1284.38 3932.81,1302.66"/>
        <lane id="m4_4" index="4" allow="private emergency authority army vip passenger hov taxi bus coach delivery truck trailer motorcycle evehicle custom1 custom2" speed="29.06" length="61.13" shape="3990.18,1281.32 3931.85,1299.61"/>
        <lane id="m4_5" index="5" allow="private emergency authority army vip passenger hov taxi bus coach delivery truck trailer motorcycle evehicle custom1 custom2" speed="29.06" length="61.13" shape="3989.23,1278.27 3930.89,1296.56"/>
    </edge>
    <edge id="m5" from="304695082" to="27748104#0-AddedOnRampNode" priority="13" type="highway.motorway" spreadType="center" shape="3932.92,1304.30 3899.28,1313.68">
        <lane id="m5_0" index="0" allow="private emergency authority army vip passenger hov taxi bus coach delivery truck trailer motorcycle evehicle custom1 custom2" speed="29.06" length="30.59" acceleration="1" shape="3934.75,1312.10 3905.28,1320.31"/>
        <lane id="m5_1" index="1" allow="private emergency authority army vip passenger hov taxi bus coach delivery truck trailer motorcycle evehicle custom1 custom2" speed="29.06" length="30.59" shape="3933.89,1309.01 3904.42,1317.23"/>
        <lane id="m5_2" index="2" allow="private emergency authority army vip passenger hov taxi bus coach delivery truck trailer motorcycle evehicle custom1 custom2" speed="29.06" length="30.59" shape="3933.03,1305.93 3903.56,1314.15"/>
        <lane id="m5_3" index="3" allow="private emergency authority army vip passenger hov taxi bus coach delivery truck trailer motorcycle evehicle custom1 custom2" speed="29.06" length="30.59" shape="3932.17,1302.85 3902.70,1311.06"/>
        <lane id="m5_4" index="4" allow="private emergency authority army vip passenger hov taxi bus coach delivery truck trailer motorcycle evehicle custom1 custom2" speed="29.06" length="30.59" shape="3931.31,1299.77 3901.84,1307.98"/>
        <lane id="m5_5" index="5" allow="private emergency authority army vip passenger hov taxi bus coach delivery truck trailer motorcycle evehicle custom1 custom2" speed="29.06" length="30.59" shape="3930.45,1296.68 3900.98,1304.90"/>
    </edge>
    <edge id="m6" from="27748104#0-AddedOnRampNode" to="304822600" priority="13" type="highway.motorway" spreadType="center" shape="3898.85,1312.14 3885.01,1316.00 3841.07,1328.20 3802.69,1335.78 3763.70,1342.81 3700.71,1345.90">
        <lane id="m6_0" index="0" allow="private emergency authority army vip passenger hov taxi bus coach delivery truck trailer motorcycle evehicle custom1 custom2" speed="29.06" length="196.24" shape="3896.72,1319.38 3886.72,1322.17 3842.55,1334.43 3803.88,1342.07 3764.43,1349.18 3702.56,1352.22"/>
        <lane id="m6_1" index="1" allow="private emergency authority army vip passenger hov taxi bus coach delivery truck trailer motorcycle evehicle custom1 custom2" speed="29.06" length="196.24" shape="3895.86,1316.30 3885.87,1319.08 3841.81,1331.32 3803.28,1338.92 3764.06,1346.00 3702.40,1349.02"/>
        <lane id="m6_2" index="2" allow="private emergency authority army vip passenger hov taxi bus coach delivery truck trailer motorcycle evehicle custom1 custom2" speed="29.06" length="196.24" shape="3895.00,1313.21 3885.01,1316.00 3841.07,1328.20 3802.69,1335.78 3763.70,1342.81 3702.25,1345.82"/>
        <lane id="m6_3" index="3" allow="private emergency authority army vip passenger hov taxi bus coach delivery truck trailer motorcycle evehicle custom1 custom2" speed="29.06" length="196.24" shape="3894.14,1310.13 3884.15,1312.92 3840.33,1325.08 3802.10,1332.64 3763.34,1339.62 3702.09,1342.63"/>
        <lane id="m6_4" index="4" allow="private emergency authority army vip passenger hov taxi bus coach delivery truck trailer motorcycle evehicle custom1 custom2" speed="29.06" length="196.24" shape="3893.28,1307.05 3883.30,1309.83 3839.59,1321.97 3801.50,1329.49 3762.97,1336.44 3701.93,1339.43"/>
    </edge>
    <edge id="m7" from="304822600" to="27748104#1-AddedOnRampNode" priority="13" type="highway.motorway" spreadType="center" shape="3700.74,1347.50 3600.76,1349.56">
        <lane id="m7_0" index="0" allow="private emergency authority army vip passenger hov taxi bus coach delivery truck trailer motorcycle evehicle custom1 custom2" speed="29.06" length="98.56" acceleration="1" shape="3699.46,1355.53 3600.92,1357.56"/>
        <lane id="m7_1" index="1" allow="private emergency authority army vip passenger hov taxi bus coach delivery truck trailer motorcycle evehicle custom1 custom2" speed="29.06" length="98.56" shape="3699.39,1352.33 3600.86,1354.36"/>
        <lane id="m7_2" index="2" allow="private emergency authority army vip passenger hov taxi bus coach delivery truck trailer motorcycle evehicle custom1 custom2" speed="29.06" length="98.56" shape="3699.33,1349.13 3600.79,1351.16"/>
        <lane id="m7_3" index="3" allow="private emergency authority army vip passenger hov taxi bus coach delivery truck trailer motorcycle evehicle custom1 custom2" speed="29.06" length="98.56" shape="3699.26,1345.93 3600.73,1347.96"/>
        <lane id="m7_4" index="4" allow="private emergency authority army vip passenger hov taxi bus coach delivery truck trailer motorcycle evehicle custom1 custom2" speed="29.06" length="98.56" shape="3699.20,1342.73 3600.66,1344.76"/>
        <lane id="m7_5" index="5" allow="private emergency authority army vip passenger hov taxi bus coach delivery truck trailer motorcycle evehicle custom1 custom2" speed="29.06" length="98.56" shape="3699.13,1339.53 3600.60,1341.56"/>
    </edge>
    <edge id="m8" from="27748104#1-AddedOnRampNode" to="304822559" priority="13" type="highway.motorway" spreadType="center" shape="3600.76,1349.56 3568.82,1350.22">
        <lane id="m8_0" index="0" allow="private emergency authority army vip passenger hov taxi bus coach delivery truck trailer motorcycle evehicle custom1 custom2" speed="29.06" length="30.38" shape="3600.93,1357.56 3570.55,1358.19"/>
        <lane id="m8_1" index="1" allow="private emergency authority army vip passenger hov taxi bus coach delivery truck trailer motorcycle evehicle custom1 custom2" speed="29.06" length="30.38" shape="3600.86,1354.36 3570.48,1354.99"/>
        <lane id="m8_2" index="2" allow="private emergency authority army vip passenger hov taxi bus coach delivery truck trailer motorcycle evehicle custom1 custom2" speed="29.06" length="30.38" shape="3600.79,1351.16 3570.42,1351.79"/>
        <lane id="m8_3" index="3" allow="private emergency authority army vip passenger hov taxi bus coach delivery truck trailer motorcycle evehicle custom1 custom2" speed="29.06" length="30.38" shape="3600.73,1347.96 3570.35,1348.59"/>
        <lane id="m8_4" index="4" allow="private emergency authority army vip passenger hov taxi bus coach delivery truck trailer motorcycle evehicle custom1 custom2" speed="29.06" length="30.38" shape="3600.66,1344.76 3570.28,1345.39"/>
        <lane id="m8_5" index="5" allow="private emergency authority army vip passenger hov taxi bus coach delivery truck trailer motorcycle evehicle custom1 custom2" speed="29.06" length="30.38" shape="3600.59,1341.56 3570.22,1342.19"/>
    </edge>
    <edge id="m9" from="304822559" to="304821770" priority="13" type="highway.motorway" spreadType="center">
        <lane id="m9_0" index="0" allow="private emergency authority army vip passenger hov taxi bus coach delivery truck trailer motorcycle evehicle custom1 custom2" speed="29.06" length="383.05" shape="3567.41,1355.01 3184.32,1351.45"/>
        <lane id="m9_1" index="1" allow="private emergency authority army vip passenger hov taxi bus coach delivery truck trailer motorcycle evehicle custom1 custom2" speed="29.06" length="383.05" shape="3567.41,1351.81 3184.35,1348.25"/>
        <lane id="m9_2" index="2" allow="private emergency authority army vip passenger hov taxi bus coach delivery truck trailer motorcycle evehicle custom1 custom2" speed="29.06" length="383.05" shape="3567.41,1348.61 3184.38,1345.05"/>
        <lane id="m9_3" index="3" allow="private emergency authority army vip passenger hov taxi bus coach delivery truck trailer motorcycle evehicle custom1 custom2" speed="29.06" length="383.05" shape="3567.41,1345.41 3184.41,1341.85"/>
        <lane id="m9_4" index="4" allow="private emergency authority army vip passenger hov taxi bus coach delivery truck trailer motorcycle evehicle custom1 custom2" speed="29.06" length="383.05" shape="3567.40,1342.21 3184.44,1338.65"/>
    </edge>
    <edge id="rin3" from="304822707" to="304822600" priority="12" type="highway.motorway_link" spreadType="center" shape="3808.02,1352.89 3784.62,1353.47 3731.45,1353.93 3700.91,1355.74">
        <lane id="rin3_0" index="0" allow="private emergency authority army vip passenger hov taxi bus coach delivery truck trailer motorcycle evehicle custom1 custom2" speed="22.22" length="74.99" shape="3777.67,1353.53 3731.45,1353.93 3702.73,1355.63"/>
    </edge>
    <edge id="rlight1" from="gneJ1" to="304822707" priority="1">
        <lane id="rlight1_0" index="0" speed="22.22" length="167.99" shape="3948.53,1358.95 3780.63,1353.62"/>
    </edge>
    <edge id="rout1" from="304822559" to="304822667" priority="12" type="highway.motorway_link" spreadType="center" shape="3568.99,1358.47 3431.98,1358.59 3300.10,1371.47 3279.92,1375.15 3270.53,1376.76">
        <lane id="rout1_0" index="0" allow="private emergency authority army vip passenger hov taxi bus coach delivery truck trailer motorcycle evehicle custom1 custom2" speed="22.22" length="297.98" shape="3567.42,1358.47 3431.98,1358.59 3300.10,1371.47 3279.92,1375.15 3270.53,1376.76"/>
    </edge>

    <tlLogic id="304822707" type="static" programID="0" offset="0">
        <phase duration="83" state="G"/>
        <phase duration="7"  state="y"/>
    </tlLogic>

    <junction id="123134076" type="dead_end" x="3123.64" y="0.00" incLanes="" intLanes="" shape="3123.64,0.00"/>
    <junction id="1775736271" type="dead_end" x="2853.76" y="2383.13" incLanes="" intLanes="" shape="2853.76,2383.13"/>
    <junction id="2277916551" type="dead_end" x="3173.13" y="2584.64" incLanes="" intLanes="" shape="3173.13,2584.64"/>
    <junction id="27748104#0-AddedOnRampNode" type="priority" x="3898.85" y="1312.14" incLanes="m5_0 m5_1 m5_2 m5_3 m5_4 m5_5" intLanes=":27748104#0-AddedOnRampNode_0_0 :27748104#0-AddedOnRampNode_0_1 :27748104#0-AddedOnRampNode_0_2 :27748104#0-AddedOnRampNode_0_3 :27748104#0-AddedOnRampNode_0_4" shape="3905.71,1321.85 3900.55,1303.36 3892.85,1305.51 3897.15,1320.92">
        <request index="0" response="00000" foes="00000" cont="0"/>
        <request index="1" response="00000" foes="00000" cont="0"/>
        <request index="2" response="00000" foes="00000" cont="0"/>
        <request index="3" response="00000" foes="00000" cont="0"/>
        <request index="4" response="00000" foes="00000" cont="0"/>
    </junction>
    <junction id="27748104#1-AddedOnRampNode" type="priority" x="3600.73" y="1347.96" incLanes="m7_0 m7_1 m7_2 m7_3 m7_4 m7_5" intLanes=":27748104#1-AddedOnRampNode_0_0 :27748104#1-AddedOnRampNode_0_1 :27748104#1-AddedOnRampNode_0_2 :27748104#1-AddedOnRampNode_0_3 :27748104#1-AddedOnRampNode_0_4 :27748104#1-AddedOnRampNode_0_5" shape="3600.96,1359.16 3600.56,1339.96 3600.96,1359.16">
        <request index="0" response="000000" foes="000000" cont="0"/>
        <request index="1" response="000000" foes="000000" cont="0"/>
        <request index="2" response="000000" foes="000000" cont="0"/>
        <request index="3" response="000000" foes="000000" cont="0"/>
        <request index="4" response="000000" foes="000000" cont="0"/>
        <request index="5" response="000000" foes="000000" cont="0"/>
    </junction>
    <junction id="301979490" type="dead_end" x="1689.62" y="729.93" incLanes="" intLanes="" shape="1689.62,729.93"/>
    <junction id="304695082" type="priority" x="3932.49" y="1302.76" incLanes="m4_0 m4_1 m4_2 m4_3 m4_4 m4_5" intLanes=":304695082_0_0 :304695082_0_1 :304695082_0_2 :304695082_0_3 :304695082_0_4 :304695082_0_5" shape="3936.16,1313.35 3930.41,1295.03 3930.02,1295.14 3935.18,1313.64">
        <request index="0" response="000000" foes="000000" cont="0"/>
        <request index="1" response="000000" foes="000000" cont="0"/>
        <request index="2" response="000000" foes="000000" cont="0"/>
        <request index="3" response="000000" foes="000000" cont="0"/>
        <request index="4" response="000000" foes="000000" cont="0"/>
        <request index="5" response="000000" foes="000000" cont="0"/>
    </junction>
    <junction id="304695291" type="dead_end" x="4075.50" y="1244.84" incLanes="" intLanes="" shape="4071.96,1237.67 4079.04,1252.01"/>
    <junction id="304695295" type="priority" x="3994.59" y="1283.29" incLanes="m3_0 m3_1 m3_2 m3_3 m3_4" intLanes=":304695295_0_0 :304695295_0_1 :304695295_0_2 :304695295_0_3 :304695295_0_4 :304695295_0_5" shape="4001.11,1289.11 3994.47,1274.55 3988.75,1276.74 3994.49,1295.06">
        <request index="0" response="000000" foes="000000" cont="0"/>
        <request index="1" response="000000" foes="000000" cont="0"/>
        <request index="2" response="000000" foes="000000" cont="0"/>
        <request index="3" response="000000" foes="000000" cont="0"/>
        <request index="4" response="000000" foes="000000" cont="0"/>
        <request index="5" response="000000" foes="000000" cont="0"/>
    </junction>
    <junction id="304821770" type="dead_end" x="3184.38" y="1345.05" incLanes="m9_0 m9_1 m9_2 m9_3 m9_4" intLanes="" shape="3184.31,1353.05 3184.45,1337.05"/>
    <junction id="304822559" type="priority" x="3568.79" y="1348.62" incLanes="m8_0 m8_1 m8_2 m8_3 m8_4 m8_5" intLanes=":304822559_0_0 :304822559_1_0 :304822559_1_1 :304822559_1_2 :304822559_1_3 :304822559_1_4" shape="3570.58,1359.79 3570.19,1340.59 3567.40,1340.61 3567.42,1360.07">
        <request index="0" response="000000" foes="000000" cont="0"/>
        <request index="1" response="000000" foes="000000" cont="0"/>
        <request index="2" response="000000" foes="000000" cont="0"/>
        <request index="3" response="000000" foes="000000" cont="0"/>
        <request index="4" response="000000" foes="000000" cont="0"/>
        <request index="5" response="000000" foes="000000" cont="0"/>
    </junction>
    <junction id="304822600" type="priority" x="3700.71" y="1345.90" incLanes="m6_0 m6_1 m6_2 m6_3 m6_4 rin3_0" intLanes=":304822600_0_0 :304822600_0_1 :304822600_0_2 :304822600_0_3 :304822600_0_4 :304822600_5_0" shape="3702.81,1357.23 3701.86,1337.83 3699.10,1337.93 3699.49,1357.13">
        <request index="0" response="000000" foes="000000" cont="0"/>
        <request index="1" response="000000" foes="000000" cont="0"/>
        <request index="2" response="000000" foes="000000" cont="0"/>
        <request index="3" response="000000" foes="000000" cont="0"/>
        <request index="4" response="000000" foes="000000" cont="0"/>
        <request index="5" response="000000" foes="000000" cont="0"/>
    </junction>
    <junction id="304822667" type="dead_end" x="3270.53" y="1376.76" incLanes="rout1_0" intLanes="" shape="3270.80,1378.34 3270.26,1375.18"/>
    <junction id="304822707" type="traffic_light" x="3808.02" y="1352.89" incLanes="rlight1_0" intLanes=":304822707_0_0" shape="3780.57,1355.22 3780.68,1352.02 3777.63,1351.93 3777.71,1355.13">
        <request index="0" response="0" foes="0" cont="0"/>
    </junction>
    <junction id="gneJ1" type="dead_end" x="3948.58" y="1357.35" incLanes="" intLanes="" shape="3948.58,1357.35 3948.48,1360.55"/>
